ut_trans_VLN_Node.Txt

LINE-GROUND and LINE-LINE VOLTAGES BY BUS & NODE

Bus       Node    VLN (kV)   Angle      pu     Base kV    Node-Node   VLL (kV)  Angle      pu

SOURCEBUS 1       6.3509 /_    0.0         1    11.000        1-2         11 /_   30.0         1
   -      2       6.3509 /_ -120.0         1    11.000        2-3         11 /_  -90.0         1
   -      3       6.3509 /_  120.0         1    11.000        3-1         11 /_  150.0         1
1 ....... 1       6.1399 /_    0.8   0.96678    11.000        1-2     10.642 /_   30.7   0.96742
   -      2       6.1324 /_ -119.4    0.9656    11.000        2-3     10.594 /_  -89.4   0.96309
   -      3       6.1114 /_  120.8    0.9623    11.000        3-1     10.606 /_  150.9   0.96416
2 ....... 1       2.0464 /_   29.7   0.88612     4.000        1-2     3.5272 /_   59.5    0.8818
   -      2       2.0226 /_  -90.4   0.87583     4.000        2-3     3.4905 /_  -60.5   0.87262
   -      3       2.0111 /_  149.7   0.87083     4.000        3-1     3.5135 /_ -180.0   0.87838
3 ....... 1       2.0182 /_   29.8   0.87391     4.000        1-2     3.4729 /_   59.5   0.86824
   -      2       1.9874 /_  -90.4   0.86055     4.000        2-3     3.4271 /_  -60.4   0.85678
   -      3       1.9742 /_  149.8   0.85486     4.000        3-1     3.4574 /_ -179.8   0.86434
